-------------------------------------------------------
          Amber 20 PMEMD                              2020
          -------------------------------------------------------

  [-O]verwriting output

File Assignments:

 Here is the input file:

npt for deltaG calculation
 &cntrl
  imin=0,
  irest=0,
  ntx=1,
  ig=-1,
  nstlim=9000,
  dt=0.001,
  cut=10.0,
  ntp=1,
  pres0=1.01325,
  tempi=0.0,
  temp0=0.0,
  ntt=3,
  gamma_ln=2.0,
  ntpr=500,
  ntwr=500,
  ntwx=10000,
  ntave=500,
  ioutfm=1,
  ntwv=-1,
  iwrap=1,
  ntc=2,
  ntf=2,
/
&ewald
nfft1=48, nfft2=48, nfft3=48,
/

Note: ig = -1. Setting random seed to   812808 based on wallclock time in
      microseconds.

--------------------------------------------------------------------------------
   1.  RESOURCE   USE:
--------------------------------------------------------------------------------

 getting box info from netcdf restart file
 NATOM  =   80179 NTYPES =      34 NBONH =   58326 MBONA  =   21936
 NTHETH =    8178 MTHETA =    5004 NPHIH =   16311 MPHIA  =   15794
 NHPARM =       0 NPARM  =       0 NNB   =  167486 NRES   =   18687
 NBONA  =   21936 NTHETA =    5004 NPHIA =   15794 NUMBND =     109
 NUMANG =     250 NPTRA  =     250 NATYP =      62 NPHB   =       0
 IFBOX  =       1 NMXRS  =      85 IFCAP =       0 NEXTRA =   18245
 NCOPY  =       0

     BOX TYPE: RECTILINEAR

--------------------------------------------------------------------------------
   2.  CONTROL  DATA  FOR  THE  RUN
--------------------------------------------------------------------------------

default_name

General flags:
     imin    =       0, nmropt  =       0

Nature and format of input:
     ntx     =       1, irest   =       0, ntrx    =       1

Nature and format of output:
     ntxo    =       2, ntpr    =     500, ntrx    =       1, ntwr    =     500
     iwrap   =       1, ntwx    =   10000, ntwv    =      -1, ntwe    =       0
     ioutfm  =       1, ntwprt  =       0, idecomp =       0, rbornstat=      0

Potential function:
     ntf     =       2, ntb     =       2, igb     =       0, nsnb    =      25
     ipol    =       0, gbsa    =       0, iesp    =       0
     dielc   =   1.00000, cut     =  10.00000, intdiel =   1.00000

Frozen or restrained atoms:
     ibelly  =       0, ntr     =       0

Molecular dynamics:
     nstlim  =      9000, nscm    =      1000, nrespa  =         1
     t       =   0.00000, dt      =   0.00100, vlimit  =  -1.00000

Langevin dynamics temperature regulation:
     ig      =  812808
     temp0   =   0.00000, tempi   =   0.00000, gamma_ln=   2.00000

Pressure regulation:
     ntp     =       1
     pres0   =   1.01325, comp    =  44.60000, taup    =   1.00000

SHAKE:
     ntc     =       2, jfastw  =       0
     tol     =   0.00001

Extra-points options:
     frameon =       1, chngmask=       1

Ewald parameters:
     verbose =       0, ew_type =       0, nbflag  =       1, use_pme =       1
     vdwmeth =       1, eedmeth =       1, netfrc  =       1
     Box X =  102.649   Box Y =   96.210   Box Z =   76.543
     Alpha =   90.000   Beta  =   90.000   Gamma =   90.000
     NFFT1 =   48       NFFT2 =   48       NFFT3 =   48
     Cutoff=   10.000   Tol   =0.100E-04
     Ewald Coefficient =  0.27511
     Interpolation order =    4

--------------------------------------------------------------------------------
   3.  ATOMIC COORDINATES AND VELOCITIES
--------------------------------------------------------------------------------

default_name
 begin time read from input coords =     0.000 ps

 Number of triangulated 3-point waters found:    18245

     Sum of charges from parm topology file =  -6.00090306
     Assuming uniform neutralizing plasma

--------------------------------------------------------------------------------
   4.  RESULTS
 NSTEP =        0   TIME(PS) =       0.000  TEMP(K) =     0.00  PRESS = -1478.4
 Etot   =   -398929.4618  EKtot   =         0.0000  EPtot      =   -398929.4618
 BOND   =       246.8928  ANGLE   =       923.2330  DIHED      =      1968.5592
 UB     =         0.0000  IMP     =         0.0000  CMAP       =       345.6762
 1-4 NB =      1473.4600  1-4 EEL =     17672.6003  VDWAALS    =     85969.5301
 EELEC  =   -507529.4135  EHBOND  =         0.0000  RESTRAINT  =         0.0000
 EKCMT  =         0.0000  VIRIAL  =     24129.4981  VOLUME     =    755924.2752
                                                    Density    =         0.8352
 ------------------------------------------------------------------------------

      A V E R A G E S   O V E R     500 S T E P S

 NSTEP =      500   TIME(PS) =       0.500  TEMP(K) =    25.54  PRESS =   775.8
 Etot   =   -269043.7347  EKtot   =      3234.5511  EPtot      =   -272278.2858
 BOND   =       244.0232  ANGLE   =       921.8276  DIHED      =      1971.3438
 UB     =         0.0000  IMP     =         0.0000  CMAP       =       345.0478
 1-4 NB =      1484.7513  1-4 EEL =     17679.0662  VDWAALS    =     49398.8434
 EELEC  =   -344323.1890  EHBOND  =         0.0000  RESTRAINT  =         0.0000
 EKCMT  =      2429.6020  VIRIAL  =    -10339.4328  VOLUME     =    771465.8357
                                                    Density    =         0.8183
 ------------------------------------------------------------------------------

      R M S  F L U C T U A T I O N S

 NSTEP =      500   TIME(PS) =       0.500  TEMP(K) =    51.24  PRESS =  2954.2
 Etot   =      4899.0497  EKtot   =      6489.9205  EPtot      =      5935.7228
 BOND   =         2.0348  ANGLE   =         7.5514  DIHED      =         9.8774
 UB     =         0.0000  IMP     =         0.0000  CMAP       =         1.1027
 1-4 NB =         4.2245  1-4 EEL =         8.2171  VDWAALS    =      9341.8114
 EELEC  =     10608.5544  EHBOND  =         0.0000  RESTRAINT  =         0.0000
 EKCMT  =       740.6350  VIRIAL  =     48880.6434  VOLUME     =      3400.8787
                                                    Density    =         0.0036
 ------------------------------------------------------------------------------

      A V E R A G E S   O V E R     500 S T E P S

 NSTEP =     1000   TIME(PS) =       1.000  TEMP(K) =    10.89  PRESS =  -561.5
 Etot   =   -273504.1413  EKtot   =      1379.3005  EPtot      =   -274883.4419
 BOND   =       243.8851  ANGLE   =       936.9781  DIHED      =      1995.3519
 UB     =         0.0000  IMP     =         0.0000  CMAP       =       346.6789
 1-4 NB =      1488.5792  1-4 EEL =     17668.0564  VDWAALS    =     46582.2217
 EELEC  =   -344145.1932  EHBOND  =         0.0000  RESTRAINT  =         0.0000
 EKCMT  =      1175.3175  VIRIAL  =     10441.3754  VOLUME     =    763980.0034
                                                    Density    =         0.8264
 ------------------------------------------------------------------------------

      R M S  F L U C T U A T I O N S

 NSTEP =     1000   TIME(PS) =       1.000  TEMP(K) =     2.33  PRESS =    71.1
 Etot   =       819.6031  EKtot   =       295.2445  EPtot      =       524.7884
 BOND   =         1.6185  ANGLE   =         3.2932  DIHED      =         3.2948
 UB     =         0.0000  IMP     =         0.0000  CMAP       =         1.3898
 1-4 NB =         3.6608  1-4 EEL =         6.8033  VDWAALS    =       383.5346
 EELEC  =       905.6054  EHBOND  =         0.0000  RESTRAINT  =         0.0000
 EKCMT  =       250.5855  VIRIAL  =      1434.5188  VOLUME     =      2796.2233
                                                    Density    =         0.0030
 ------------------------------------------------------------------------------

      A V E R A G E S   O V E R     500 S T E P S

 NSTEP =     1500   TIME(PS) =       1.500  TEMP(K) =     5.34  PRESS =  -369.5
 Etot   =   -275521.3374  EKtot   =       676.7221  EPtot      =   -276198.0595
 BOND   =       242.2677  ANGLE   =       930.3864  DIHED      =      2006.0581
 UB     =         0.0000  IMP     =         0.0000  CMAP       =       347.5985
 1-4 NB =      1491.4565  1-4 EEL =     17651.7890  VDWAALS    =     47469.4477
 EELEC  =   -346337.0634  EHBOND  =         0.0000  RESTRAINT  =         0.0000
 EKCMT  =       577.9796  VIRIAL  =      6612.9727  VOLUME     =    756223.8360
                                                    Density    =         0.8348
 ------------------------------------------------------------------------------

      R M S  F L U C T U A T I O N S

 NSTEP =     1500   TIME(PS) =       1.500  TEMP(K) =     1.03  PRESS =    33.8
 Etot   =       400.5369  EKtot   =       130.5818  EPtot      =       270.0642
 BOND   =         0.8032  ANGLE   =         2.1426  DIHED      =         2.0559
 UB     =         0.0000  IMP     =         0.0000  CMAP       =         0.6357
 1-4 NB =         1.2867  1-4 EEL =         5.9479  VDWAALS    =       134.3497
 EELEC  =       398.8196  EHBOND  =         0.0000  RESTRAINT  =         0.0000
 EKCMT  =       110.9172  VIRIAL  =       673.7832  VOLUME     =      1808.0629
                                                    Density    =         0.0020
 ------------------------------------------------------------------------------

      A V E R A G E S   O V E R     500 S T E P S

 NSTEP =     2000   TIME(PS) =       2.000  TEMP(K) =     2.89  PRESS =  -311.5
 Etot   =   -276548.3497  EKtot   =       365.4985  EPtot      =   -276913.8481
 BOND   =       241.3550  ANGLE   =       928.8733  DIHED      =      2011.3918
 UB     =         0.0000  IMP     =         0.0000  CMAP       =       348.0314
 1-4 NB =      1497.5830  1-4 EEL =     17647.6918  VDWAALS    =     47757.0203
 EELEC  =   -347345.7947  EHBOND  =         0.0000  RESTRAINT  =         0.0000
 EKCMT  =       311.9966  VIRIAL  =      5360.3850  VOLUME     =    750624.3989
                                                    Density    =         0.8411
 ------------------------------------------------------------------------------

      R M S  F L U C T U A T I O N S

 NSTEP =     2000   TIME(PS) =       2.000  TEMP(K) =     0.46  PRESS =    10.7
 Etot   =       216.5576  EKtot   =        58.5129  EPtot      =       158.1795
 BOND   =         0.6516  ANGLE   =         1.5378  DIHED      =         1.6083
 UB     =         0.0000  IMP     =         0.0000  CMAP       =         0.9999
 1-4 NB =         1.7820  1-4 EEL =         5.8269  VDWAALS    =        38.9442
 EELEC  =       194.3906  EHBOND  =         0.0000  RESTRAINT  =         0.0000
 EKCMT  =        51.6189  VIRIAL  =       205.4425  VOLUME     =      1497.6249
                                                    Density    =         0.0017
 ------------------------------------------------------------------------------

      A V E R A G E S   O V E R     500 S T E P S

 NSTEP =     2500   TIME(PS) =       2.500  TEMP(K) =     1.69  PRESS =  -320.4
 Etot   =   -277133.6538  EKtot   =       214.0738  EPtot      =   -277347.7276
 BOND   =       240.2565  ANGLE   =       927.2181  DIHED      =      2011.0643
 UB     =         0.0000  IMP     =         0.0000  CMAP       =       349.1523
 1-4 NB =      1497.9575  1-4 EEL =     17658.6100  VDWAALS    =     47807.7892
 EELEC  =   -347839.7756  EHBOND  =         0.0000  RESTRAINT  =         0.0000
 EKCMT  =       182.6093  VIRIAL  =      5338.4185  VOLUME     =    745353.9731
                                                    Density    =         0.8470
 ------------------------------------------------------------------------------

      R M S  F L U C T U A T I O N S

 NSTEP =     2500   TIME(PS) =       2.500  TEMP(K) =     0.25  PRESS =     9.2
 Etot   =       129.7455  EKtot   =        31.5032  EPtot      =        98.4394
 BOND   =         0.4440  ANGLE   =         0.9355  DIHED      =         1.2688
 UB     =         0.0000  IMP     =         0.0000  CMAP       =         0.4029
 1-4 NB =         1.0414  1-4 EEL =         3.0452  VDWAALS    =        27.1389
 EELEC  =       118.7360  EHBOND  =         0.0000  RESTRAINT  =         0.0000
 EKCMT  =        25.3320  VIRIAL  =       152.8950  VOLUME     =      1550.3939
                                                    Density    =         0.0018
 ------------------------------------------------------------------------------

      A V E R A G E S   O V E R     500 S T E P S

 NSTEP =     7500   TIME(PS) =       7.500  TEMP(K) =     0.95  PRESS =  -561.8
 Etot   =   -279141.2200  EKtot   =       119.9015  EPtot      =   -279261.1215
 BOND   =       238.2551  ANGLE   =       932.7438  DIHED      =      2011.3693
 UB     =         0.0000  IMP     =         0.0000  CMAP       =       349.4060
 1-4 NB =      1498.5230  1-4 EEL =     17667.2284  VDWAALS    =     47180.4146
 EELEC  =   -349139.0617  EHBOND  =         0.0000  RESTRAINT  =         0.0000
 EKCMT  =       117.0169  VIRIAL  =      8423.5294  VOLUME     =    684839.6369
                                                    Density    =         0.9219
 ------------------------------------------------------------------------------

      R M S  F L U C T U A T I O N S

 NSTEP =     7500   TIME(PS) =       7.500  TEMP(K) =     0.04  PRESS =    16.7
 Etot   =        87.0537  EKtot   =         5.2010  EPtot      =        91.9888
 BOND   =         0.1348  ANGLE   =         0.1865  DIHED      =         0.2497
 UB     =         0.0000  IMP     =         0.0000  CMAP       =         0.1276
 1-4 NB =         0.1765  1-4 EEL =         1.1612  VDWAALS    =        48.7559
 EELEC  =        43.1729  EHBOND  =         0.0000  RESTRAINT  =         0.0000
 EKCMT  =         5.2161  VIRIAL  =       221.6541  VOLUME     =      2475.9756
                                                    Density    =         0.0033
 ------------------------------------------------------------------------------

      A V E R A G E S   O V E R     500 S T E P S

 NSTEP =     8000   TIME(PS) =       8.000  TEMP(K) =     1.21  PRESS =  -622.8
 Etot   =   -279483.1362  EKtot   =       152.7667  EPtot      =   -279635.9029
 BOND   =       238.2023  ANGLE   =       932.4525  DIHED      =      2011.5891
 UB     =         0.0000  IMP     =         0.0000  CMAP       =       349.8442
 1-4 NB =      1499.3639  1-4 EEL =     17666.1651  VDWAALS    =     46992.6005
 EELEC  =   -349326.1206  EHBOND  =         0.0000  RESTRAINT  =         0.0000
 EKCMT  =       149.3581  VIRIAL  =      9236.2995  VOLUME     =    675840.9129
                                                    Density    =         0.9341
 ------------------------------------------------------------------------------

      R M S  F L U C T U A T I O N S

 NSTEP =     8000   TIME(PS) =       8.000  TEMP(K) =     0.08  PRESS =    16.9
 Etot   =       110.5548  EKtot   =         9.9258  EPtot      =       120.2903
 BOND   =         0.1121  ANGLE   =         0.3112  DIHED      =         0.3331
 UB     =         0.0000  IMP     =         0.0000  CMAP       =         0.0997
 1-4 NB =         0.4754  1-4 EEL =         0.6689  VDWAALS    =        56.7463
 EELEC  =        65.7696  EHBOND  =         0.0000  RESTRAINT  =         0.0000
 EKCMT  =         9.8330  VIRIAL  =       219.5841  VOLUME     =      2715.1058
                                                    Density    =         0.0038
 ------------------------------------------------------------------------------

      A V E R A G E S   O V E R     500 S T E P S

 NSTEP =     8500   TIME(PS) =       8.500  TEMP(K) =     1.59  PRESS =  -667.8
 Etot   =   -279920.5050  EKtot   =       201.6188  EPtot      =   -280122.1238
 BOND   =       238.2218  ANGLE   =       932.9118  DIHED      =      2010.9060
 UB     =         0.0000  IMP     =         0.0000  CMAP       =       349.2547
 1-4 NB =      1499.9427  1-4 EEL =     17667.6604  VDWAALS    =     46874.3240
 EELEC  =   -349695.3452  EHBOND  =         0.0000  RESTRAINT  =         0.0000
 EKCMT  =       197.6444  VIRIAL  =      9802.3236  VOLUME     =    666119.2738
                                                    Density    =         0.9478
 ------------------------------------------------------------------------------

      R M S  F L U C T U A T I O N S

 NSTEP =     8500   TIME(PS) =       8.500  TEMP(K) =     0.12  PRESS =     8.3
 Etot   =       144.1600  EKtot   =        15.0699  EPtot      =       158.1467
 BOND   =         0.1512  ANGLE   =         0.5243  DIHED      =         0.1565
 UB     =         0.0000  IMP     =         0.0000  CMAP       =         0.3696
 1-4 NB =         0.1908  1-4 EEL =         0.7382  VDWAALS    =        23.2904
 EELEC  =       160.5483  EHBOND  =         0.0000  RESTRAINT  =         0.0000
 EKCMT  =        15.0186  VIRIAL  =       111.0112  VOLUME     =      2878.7565
                                                    Density    =         0.0041
 ------------------------------------------------------------------------------

      A V E R A G E S   O V E R     500 S T E P S

 NSTEP =     9000   TIME(PS) =       9.000  TEMP(K) =     1.70  PRESS =  -627.4
 Etot   =   -280427.8017  EKtot   =       214.9452  EPtot      =   -280642.7469
 BOND   =       238.7369  ANGLE   =       933.4878  DIHED      =      2010.5322
 UB     =         0.0000  IMP     =         0.0000  CMAP       =       348.1896
 1-4 NB =      1499.3237  1-4 EEL =     17667.8262  VDWAALS    =     47022.2888
 EELEC  =   -350363.1321  EHBOND  =         0.0000  RESTRAINT  =         0.0000
 EKCMT  =       210.9998  VIRIAL  =      9104.5809  VOLUME     =    656471.0347
                                                    Density    =         0.9617
 ------------------------------------------------------------------------------

      R M S  F L U C T U A T I O N S

 NSTEP =     9000   TIME(PS) =       9.000  TEMP(K) =     0.01  PRESS =    14.9
 Etot   =       145.2728  EKtot   =         1.4932  EPtot      =       146.1372
 BOND   =         0.1306  ANGLE   =         0.1801  DIHED      =         0.4071
 UB     =         0.0000  IMP     =         0.0000  CMAP       =         0.2134
 1-4 NB =         0.2712  1-4 EEL =         0.5563  VDWAALS    =        43.0275
 EELEC  =       187.1243  EHBOND  =         0.0000  RESTRAINT  =         0.0000
 EKCMT  =         1.4142  VIRIAL  =       246.4443  VOLUME     =      2657.7914
                                                    Density    =         0.0039
 ------------------------------------------------------------------------------

      A V E R A G E S   O V E R    9000 S T E P S

 NSTEP =     9000   TIME(PS) =       9.000  TEMP(K) =     3.18  PRESS =  -367.7
 Etot   =   -277465.1547  EKtot   =       403.3964  EPtot      =   -277868.5511
 BOND   =       239.8106  ANGLE   =       930.5120  DIHED      =      2007.9806
 UB     =         0.0000  IMP     =         0.0000  CMAP       =       349.1813
 1-4 NB =      1496.2253  1-4 EEL =     17663.4845  VDWAALS    =     47580.8220
 EELEC  =   -348136.5674  EHBOND  =         0.0000  RESTRAINT  =         0.0000
 EKCMT  =       332.9269  VIRIAL  =      5910.8084  VOLUME     =    718601.8145
                                                    Density    =         0.8804
 ------------------------------------------------------------------------------

      R M S  F L U C T U A T I O N S

 NSTEP =     9000   TIME(PS) =       9.000  TEMP(K) =    13.48  PRESS =   759.6
 Etot   =      2830.4014  EKtot   =      1707.6051  EPtot      =      2363.6573
 BOND   =         1.9319  ANGLE   =         3.7839  DIHED      =        10.0923
 UB     =         0.0000  IMP     =         0.0000  CMAP       =         1.6184
 1-4 NB =         4.1250  1-4 EEL =         7.7742  VDWAALS    =      2280.8065
 EELEC  =      2989.3178  EHBOND  =         0.0000  RESTRAINT  =         0.0000
 EKCMT  =       603.2732  VIRIAL  =     12311.3644  VOLUME     =     33102.4149
                                                    Density    =         0.0412
 ------------------------------------------------------------------------------
