-------------------------------------------------------
          Amber 20 PMEMD                              2020
          -------------------------------------------------------

  [-O]verwriting output

File Assignments:

 Here is the input file:

npt for deltaG calculation
 &cntrl
  imin=0,
  irest=0,
  ntx=1,
  ig=-1,
  nstlim=9000,
  dt=0.001,
  cut=10.0,
  ntp=1,
  pres0=1.01325,
  tempi=0.0,
  temp0=0.0,
  ntt=3,
  gamma_ln=2.0,
  ntpr=500,
  ntwr=500,
  ntwx=10000,
  ntave=500,
  ioutfm=1,
  ntwv=-1,
  iwrap=1,
  ntc=2,
  ntf=2,
/
&ewald
nfft1=48, nfft2=48, nfft3=48,
/

Note: ig = -1. Setting random seed to   447389 based on wallclock time in
      microseconds.

--------------------------------------------------------------------------------
   1.  RESOURCE   USE:
--------------------------------------------------------------------------------

 getting box info from netcdf restart file
 NATOM  =   87944 NTYPES =      34 NBONH =   64151 MBONA  =   23876
 NTHETH =    8169 MTHETA =    5000 NPHIH =   16298 MPHIA  =   15780
 NHPARM =       0 NPARM  =       0 NNB   =  181051 NRES   =   20630
 NBONA  =   23876 NTHETA =    5000 NPHIA =   15780 NUMBND =     111
 NUMANG =     255 NPTRA  =     251 NATYP =      63 NPHB   =       0
 IFBOX  =       1 NMXRS  =      80 IFCAP =       0 NEXTRA =   20188
 NCOPY  =       0

     BOX TYPE: RECTILINEAR

--------------------------------------------------------------------------------
   2.  CONTROL  DATA  FOR  THE  RUN
--------------------------------------------------------------------------------

default_name

General flags:
     imin    =       0, nmropt  =       0

Nature and format of input:
     ntx     =       1, irest   =       0, ntrx    =       1

Nature and format of output:
     ntxo    =       2, ntpr    =     500, ntrx    =       1, ntwr    =     500
     iwrap   =       1, ntwx    =   10000, ntwv    =      -1, ntwe    =       0
     ioutfm  =       1, ntwprt  =       0, idecomp =       0, rbornstat=      0

Potential function:
     ntf     =       2, ntb     =       2, igb     =       0, nsnb    =      25
     ipol    =       0, gbsa    =       0, iesp    =       0
     dielc   =   1.00000, cut     =  10.00000, intdiel =   1.00000

Frozen or restrained atoms:
     ibelly  =       0, ntr     =       0

Molecular dynamics:
     nstlim  =      9000, nscm    =      1000, nrespa  =         1
     t       =   0.00000, dt      =   0.00100, vlimit  =  -1.00000

Langevin dynamics temperature regulation:
     ig      =  447389
     temp0   =   0.00000, tempi   =   0.00000, gamma_ln=   2.00000

Pressure regulation:
     ntp     =       1
     pres0   =   1.01325, comp    =  44.60000, taup    =   1.00000

SHAKE:
     ntc     =       2, jfastw  =       0
     tol     =   0.00001

Extra-points options:
     frameon =       1, chngmask=       1

Ewald parameters:
     verbose =       0, ew_type =       0, nbflag  =       1, use_pme =       1
     vdwmeth =       1, eedmeth =       1, netfrc  =       1
     Box X =  101.606   Box Y =   94.061   Box Z =   85.686
     Alpha =   90.000   Beta  =   90.000   Gamma =   90.000
     NFFT1 =   48       NFFT2 =   48       NFFT3 =   48
     Cutoff=   10.000   Tol   =0.100E-04
     Ewald Coefficient =  0.27511
     Interpolation order =    4

--------------------------------------------------------------------------------
   3.  ATOMIC COORDINATES AND VELOCITIES
--------------------------------------------------------------------------------

default_name
 begin time read from input coords =     0.000 ps

 Number of triangulated 3-point waters found:    20188

     Sum of charges from parm topology file =  -5.99988839
     Assuming uniform neutralizing plasma

--------------------------------------------------------------------------------
   4.  RESULTS
 NSTEP =        0   TIME(PS) =       0.000  TEMP(K) =     0.00  PRESS = -1256.2
 Etot   =   -440761.2576  EKtot   =         0.0000  EPtot      =   -440761.2576
 BOND   =       253.1591  ANGLE   =       938.5153  DIHED      =      1958.8493
 UB     =         0.0000  IMP     =         0.0000  CMAP       =       324.7400
 1-4 NB =      1458.9215  1-4 EEL =     17686.1631  VDWAALS    =     96171.9336
 EELEC  =   -559553.5396  EHBOND  =         0.0000  RESTRAINT  =         0.0000
 EKCMT  =         0.0000  VIRIAL  =     22211.7686  VOLUME     =    818912.2095
                                                    Density    =         0.8418
 ------------------------------------------------------------------------------

      A V E R A G E S   O V E R     500 S T E P S

 NSTEP =      500   TIME(PS) =       0.500  TEMP(K) =    25.61  PRESS =   898.2
 Etot   =   -296790.5737  EKtot   =      3540.1651  EPtot      =   -300330.7388
 BOND   =       249.6281  ANGLE   =       930.7212  DIHED      =      1961.6015
 UB     =         0.0000  IMP     =         0.0000  CMAP       =       325.7614
 1-4 NB =      1471.4983  1-4 EEL =     17692.5525  VDWAALS    =     55382.0964
 EELEC  =   -378344.5983  EHBOND  =         0.0000  RESTRAINT  =         0.0000
 EKCMT  =      2666.9623  VIRIAL  =    -13369.6520  VOLUME     =    837422.7120
                                                    Density    =         0.8232
 ------------------------------------------------------------------------------

      R M S  F L U C T U A T I O N S

 NSTEP =      500   TIME(PS) =       0.500  TEMP(K) =    52.09  PRESS =  3066.6
 Etot   =      5432.2894  EKtot   =      7199.7522  EPtot      =      6580.4426
 BOND   =         1.9211  ANGLE   =         3.0436  DIHED      =         8.0824
 UB     =         0.0000  IMP     =         0.0000  CMAP       =         1.2343
 1-4 NB =         5.5916  1-4 EEL =         4.7375  VDWAALS    =     10375.1465
 EELEC  =     11771.9631  EHBOND  =         0.0000  RESTRAINT  =         0.0000
 EKCMT  =       813.4551  VIRIAL  =     54977.2307  VOLUME     =      3911.9350
                                                    Density    =         0.0039
 ------------------------------------------------------------------------------

      A V E R A G E S   O V E R     500 S T E P S

 NSTEP =     1000   TIME(PS) =       1.000  TEMP(K) =    10.88  PRESS =  -491.1
 Etot   =   -301650.1823  EKtot   =      1503.3459  EPtot      =   -303153.5282
 BOND   =       248.1870  ANGLE   =       936.8192  DIHED      =      1975.9818
 UB     =         0.0000  IMP     =         0.0000  CMAP       =       328.9553
 1-4 NB =      1477.9248  1-4 EEL =     17689.5278  VDWAALS    =     52223.7853
 EELEC  =   -378034.7094  EHBOND  =         0.0000  RESTRAINT  =         0.0000
 EKCMT  =      1294.6145  VIRIAL  =     10105.3985  VOLUME     =    830789.6298
                                                    Density    =         0.8298
 ------------------------------------------------------------------------------

      R M S  F L U C T U A T I O N S

 NSTEP =     1000   TIME(PS) =       1.000  TEMP(K) =     2.37  PRESS =    33.2
 Etot   =       885.2939  EKtot   =       327.0277  EPtot      =       558.4822
 BOND   =         1.2964  ANGLE   =         3.1275  DIHED      =         3.5053
 UB     =         0.0000  IMP     =         0.0000  CMAP       =         1.3327
 1-4 NB =         1.8906  1-4 EEL =         4.9984  VDWAALS    =       316.6727
 EELEC  =       869.0801  EHBOND  =         0.0000  RESTRAINT  =         0.0000
 EKCMT  =       282.9015  VIRIAL  =       811.7850  VOLUME     =      2668.3397
                                                    Density    =         0.0027
 ------------------------------------------------------------------------------

      A V E R A G E S   O V E R     500 S T E P S

 NSTEP =     1500   TIME(PS) =       1.500  TEMP(K) =     5.21  PRESS =  -304.5
 Etot   =   -303819.4746  EKtot   =       719.6851  EPtot      =   -304539.1597
 BOND   =       247.9607  ANGLE   =       941.0136  DIHED      =      1970.4514
 UB     =         0.0000  IMP     =         0.0000  CMAP       =       328.4209
 1-4 NB =      1476.9272  1-4 EEL =     17681.8908  VDWAALS    =     53261.6075
 EELEC  =   -380447.4319  EHBOND  =         0.0000  RESTRAINT  =         0.0000
 EKCMT  =       619.5033  VIRIAL  =      6033.6099  VOLUME     =    823419.2697
                                                    Density    =         0.8372
 ------------------------------------------------------------------------------

      R M S  F L U C T U A T I O N S

 NSTEP =     1500   TIME(PS) =       1.500  TEMP(K) =     1.08  PRESS =    26.9
 Etot   =       420.0381  EKtot   =       149.9607  EPtot      =       270.1345
 BOND   =         1.0881  ANGLE   =         2.2970  DIHED      =         4.0871
 UB     =         0.0000  IMP     =         0.0000  CMAP       =         2.1488
 1-4 NB =         1.9077  1-4 EEL =         4.8933  VDWAALS    =       145.5466
 EELEC  =       414.4975  EHBOND  =         0.0000  RESTRAINT  =         0.0000
 EKCMT  =       130.0154  VIRIAL  =       602.1936  VOLUME     =      1591.4845
                                                    Density    =         0.0016
 ------------------------------------------------------------------------------

      A V E R A G E S   O V E R     500 S T E P S

 NSTEP =     2000   TIME(PS) =       2.000  TEMP(K) =     2.66  PRESS =  -254.8
 Etot   =   -304879.9459  EKtot   =       368.3168  EPtot      =   -305248.2627
 BOND   =       247.9283  ANGLE   =       935.5491  DIHED      =      1976.4332
 UB     =         0.0000  IMP     =         0.0000  CMAP       =       325.4171
 1-4 NB =      1474.9436  1-4 EEL =     17693.2589  VDWAALS    =     53550.9592
 EELEC  =   -381452.7520  EHBOND  =         0.0000  RESTRAINT  =         0.0000
 EKCMT  =       317.1719  VIRIAL  =      4819.4075  VOLUME     =    818352.7663
                                                    Density    =         0.8424
 ------------------------------------------------------------------------------

      R M S  F L U C T U A T I O N S

 NSTEP =     2000   TIME(PS) =       2.000  TEMP(K) =     0.49  PRESS =    13.5
 Etot   =       217.0810  EKtot   =        68.0932  EPtot      =       149.0594
 BOND   =         0.6261  ANGLE   =         1.6199  DIHED      =         1.8501
 UB     =         0.0000  IMP     =         0.0000  CMAP       =         0.9581
 1-4 NB =         1.0053  1-4 EEL =         2.6595  VDWAALS    =        51.4054
 EELEC  =       191.1747  EHBOND  =         0.0000  RESTRAINT  =         0.0000
 EKCMT  =        58.3116  VIRIAL  =       283.0916  VOLUME     =      1338.1784
                                                    Density    =         0.0014
 ------------------------------------------------------------------------------

      A V E R A G E S   O V E R     500 S T E P S

 NSTEP =     2500   TIME(PS) =       2.500  TEMP(K) =     1.41  PRESS =  -245.8
 Etot   =   -305434.9061  EKtot   =       194.2934  EPtot      =   -305629.1995
 BOND   =       246.4675  ANGLE   =       933.2800  DIHED      =      1981.0645
 UB     =         0.0000  IMP     =         0.0000  CMAP       =       325.0015
 1-4 NB =      1476.7944  1-4 EEL =     17704.7372  VDWAALS    =     53662.8337
 EELEC  =   -381959.3784  EHBOND  =         0.0000  RESTRAINT  =         0.0000
 EKCMT  =       167.8590  VIRIAL  =      4486.3531  VOLUME     =    813800.0955
                                                    Density    =         0.8471
 ------------------------------------------------------------------------------

      R M S  F L U C T U A T I O N S

 NSTEP =     2500   TIME(PS) =       2.500  TEMP(K) =     0.22  PRESS =     6.2
 Etot   =       115.0619  EKtot   =        30.1105  EPtot      =        85.1388
 BOND   =         0.6763  ANGLE   =         1.5687  DIHED      =         1.0592
 UB     =         0.0000  IMP     =         0.0000  CMAP       =         0.7079
 1-4 NB =         1.3104  1-4 EEL =         3.7299  VDWAALS    =        29.2187
 EELEC  =       114.9553  EHBOND  =         0.0000  RESTRAINT  =         0.0000
 EKCMT  =        24.8579  VIRIAL  =       133.2635  VOLUME     =      1285.9216
                                                    Density    =         0.0013
 ------------------------------------------------------------------------------

      A V E R A G E S   O V E R     500 S T E P S

 NSTEP =     7500   TIME(PS) =       7.500  TEMP(K) =     0.78  PRESS =  -502.9
 Etot   =   -307385.7195  EKtot   =       107.4706  EPtot      =   -307493.1901
 BOND   =       244.9309  ANGLE   =       934.7845  DIHED      =      1988.0553
 UB     =         0.0000  IMP     =         0.0000  CMAP       =       321.2811
 1-4 NB =      1483.1279  1-4 EEL =     17716.7875  VDWAALS    =     53041.7729
 EELEC  =   -383223.9302  EHBOND  =         0.0000  RESTRAINT  =         0.0000
 EKCMT  =       105.5691  VIRIAL  =      8275.4156  VOLUME     =    752459.3054
                                                    Density    =         0.9162
 ------------------------------------------------------------------------------

      R M S  F L U C T U A T I O N S

 NSTEP =     7500   TIME(PS) =       7.500  TEMP(K) =     0.02  PRESS =     3.8
 Etot   =        78.1343  EKtot   =         3.1648  EPtot      =        80.7345
 BOND   =         0.2015  ANGLE   =         0.0943  DIHED      =         0.4989
 UB     =         0.0000  IMP     =         0.0000  CMAP       =         0.0978
 1-4 NB =         0.3386  1-4 EEL =         0.5942  VDWAALS    =        12.3101
 EELEC  =        77.3955  EHBOND  =         0.0000  RESTRAINT  =         0.0000
 EKCMT  =         3.1497  VIRIAL  =        46.2692  VOLUME     =      2436.8625
                                                    Density    =         0.0030
 ------------------------------------------------------------------------------

      A V E R A G E S   O V E R     500 S T E P S

 NSTEP =     8000   TIME(PS) =       8.000  TEMP(K) =     0.87  PRESS =  -524.3
 Etot   =   -307664.4201  EKtot   =       120.5140  EPtot      =   -307784.9340
 BOND   =       245.1433  ANGLE   =       934.7012  DIHED      =      1985.8934
 UB     =         0.0000  IMP     =         0.0000  CMAP       =       321.5324
 1-4 NB =      1482.5458  1-4 EEL =     17716.1304  VDWAALS    =     52967.1032
 EELEC  =   -383437.9838  EHBOND  =         0.0000  RESTRAINT  =         0.0000
 EKCMT  =       118.2221  VIRIAL  =      8538.6683  VOLUME     =    743922.6987
                                                    Density    =         0.9267
 ------------------------------------------------------------------------------

      R M S  F L U C T U A T I O N S

 NSTEP =     8000   TIME(PS) =       8.000  TEMP(K) =     0.08  PRESS =    13.5
 Etot   =        86.2876  EKtot   =        10.6355  EPtot      =        96.5862
 BOND   =         0.0902  ANGLE   =         0.1653  DIHED      =         0.5247
 UB     =         0.0000  IMP     =         0.0000  CMAP       =         0.0770
 1-4 NB =         0.1814  1-4 EEL =         0.4794  VDWAALS    =        41.8231
 EELEC  =        57.4985  EHBOND  =         0.0000  RESTRAINT  =         0.0000
 EKCMT  =        10.4850  VIRIAL  =       200.2484  VOLUME     =      2516.5682
                                                    Density    =         0.0031
 ------------------------------------------------------------------------------

      A V E R A G E S   O V E R     500 S T E P S

 NSTEP =     8500   TIME(PS) =       8.500  TEMP(K) =     1.07  PRESS =  -541.9
 Etot   =   -307994.8019  EKtot   =       147.6007  EPtot      =   -308142.4026
 BOND   =       245.0318  ANGLE   =       934.9882  DIHED      =      1986.0804
 UB     =         0.0000  IMP     =         0.0000  CMAP       =       320.8911
 1-4 NB =      1482.9343  1-4 EEL =     17716.8529  VDWAALS    =     52923.5305
 EELEC  =   -383752.7118  EHBOND  =         0.0000  RESTRAINT  =         0.0000
 EKCMT  =       144.6376  VIRIAL  =      8745.3363  VOLUME     =    735053.2402
                                                    Density    =         0.9379
 ------------------------------------------------------------------------------

      R M S  F L U C T U A T I O N S

 NSTEP =     8500   TIME(PS) =       8.500  TEMP(K) =     0.06  PRESS =     4.2
 Etot   =       104.2883  EKtot   =         8.6962  EPtot      =       112.3329
 BOND   =         0.0373  ANGLE   =         0.2063  DIHED      =         0.2746
 UB     =         0.0000  IMP     =         0.0000  CMAP       =         0.2095
 1-4 NB =         0.1198  1-4 EEL =         0.4325  VDWAALS    =        15.6262
 EELEC  =       118.9945  EHBOND  =         0.0000  RESTRAINT  =         0.0000
 EKCMT  =         8.4657  VIRIAL  =        71.9697  VOLUME     =      2575.8705
                                                    Density    =         0.0033
 ------------------------------------------------------------------------------

      A V E R A G E S   O V E R     500 S T E P S

 NSTEP =     9000   TIME(PS) =       9.000  TEMP(K) =     1.32  PRESS =  -564.3
 Etot   =   -308385.3557  EKtot   =       182.2184  EPtot      =   -308567.5742
 BOND   =       244.7642  ANGLE   =       934.4402  DIHED      =      1986.0237
 UB     =         0.0000  IMP     =         0.0000  CMAP       =       320.7237
 1-4 NB =      1483.2173  1-4 EEL =     17719.4960  VDWAALS    =     52873.7495
 EELEC  =   -384129.9888  EHBOND  =         0.0000  RESTRAINT  =         0.0000
 EKCMT  =       178.4779  VIRIAL  =      9023.5915  VOLUME     =    726062.0613
                                                    Density    =         0.9495
 ------------------------------------------------------------------------------

      R M S  F L U C T U A T I O N S

 NSTEP =     9000   TIME(PS) =       9.000  TEMP(K) =     0.11  PRESS =     8.4
 Etot   =       125.7961  EKtot   =        15.0405  EPtot      =       140.0863
 BOND   =         0.1413  ANGLE   =         0.1177  DIHED      =         0.3857
 UB     =         0.0000  IMP     =         0.0000  CMAP       =         0.2467
 1-4 NB =         0.1416  1-4 EEL =         1.5316  VDWAALS    =        23.4002
 EELEC  =       122.8762  EHBOND  =         0.0000  RESTRAINT  =         0.0000
 EKCMT  =        14.5909  VIRIAL  =       116.5567  VOLUME     =      2646.3578
                                                    Density    =         0.0035
 ------------------------------------------------------------------------------

      A V E R A G E S   O V E R    9000 S T E P S

 NSTEP =     9000   TIME(PS) =       9.000  TEMP(K) =     3.05  PRESS =  -314.6
 Etot   =   -305654.0868  EKtot   =       421.2120  EPtot      =   -306075.2988
 BOND   =       245.7503  ANGLE   =       934.6707  DIHED      =      1981.8992
 UB     =         0.0000  IMP     =         0.0000  CMAP       =       323.5226
 1-4 NB =      1480.0790  1-4 EEL =     17708.7201  VDWAALS    =     53378.4919
 EELEC  =   -382128.4326  EHBOND  =         0.0000  RESTRAINT  =         0.0000
 EKCMT  =       348.2200  VIRIAL  =      5573.3763  VOLUME     =    787070.1175
                                                    Density    =         0.8774
 ------------------------------------------------------------------------------

      R M S  F L U C T U A T I O N S

 NSTEP =     9000   TIME(PS) =       9.000  TEMP(K) =    13.68  PRESS =   787.9
 Etot   =      2944.5506  EKtot   =      1891.5137  EPtot      =      2440.2668
 BOND   =         1.6611  ANGLE   =         2.4580  DIHED      =         7.1832
 UB     =         0.0000  IMP     =         0.0000  CMAP       =         2.8255
 1-4 NB =         3.6062  1-4 EEL =        11.4088  VDWAALS    =      2521.1224
 EELEC  =      3215.6738  EHBOND  =         0.0000  RESTRAINT  =         0.0000
 EKCMT  =       667.0790  VIRIAL  =     13859.5107  VOLUME     =     32691.8704
                                                    Density    =         0.0370
 ------------------------------------------------------------------------------
