-------------------------------------------------------
          Amber 20 PMEMD                              2020
          -------------------------------------------------------

  [-O]verwriting output

File Assignments:

 Here is the input file:

npt for deltaG calculation
 &cntrl
  imin=0,
  irest=0,
  ntx=1,
  ig=-1,
  nstlim=9000,
  dt=0.001,
  cut=10.0,
  ntp=1,
  pres0=1.01325,
  tempi=0.0,
  temp0=0.0,
  ntt=3,
  gamma_ln=2.0,
  ntpr=500,
  ntwr=500,
  ntwx=10000,
  ntave=500,
  ioutfm=1,
  ntwv=-1,
  iwrap=1,
  ntc=2,
  ntf=2,
/
&ewald
nfft1=48, nfft2=48, nfft3=48,
/

Note: ig = -1. Setting random seed to   236729 based on wallclock time in
      microseconds.

--------------------------------------------------------------------------------
   1.  RESOURCE   USE:
--------------------------------------------------------------------------------

 getting box info from netcdf restart file
 NATOM  =   82638 NTYPES =      34 NBONH =   60172 MBONA  =   22549
 NTHETH =    8173 MTHETA =    5000 NPHIH =   16301 MPHIA  =   15785
 NHPARM =       0 NPARM  =       0 NNB   =  171776 NRES   =   19303
 NBONA  =   22549 NTHETA =    5000 NPHIA =   15785 NUMBND =     109
 NUMANG =     251 NPTRA  =     250 NATYP =      62 NPHB   =       0
 IFBOX  =       1 NMXRS  =      80 IFCAP =       0 NEXTRA =   18861
 NCOPY  =       0

     BOX TYPE: RECTILINEAR

--------------------------------------------------------------------------------
   2.  CONTROL  DATA  FOR  THE  RUN
--------------------------------------------------------------------------------

default_name

General flags:
     imin    =       0, nmropt  =       0

Nature and format of input:
     ntx     =       1, irest   =       0, ntrx    =       1

Nature and format of output:
     ntxo    =       2, ntpr    =     500, ntrx    =       1, ntwr    =     500
     iwrap   =       1, ntwx    =   10000, ntwv    =      -1, ntwe    =       0
     ioutfm  =       1, ntwprt  =       0, idecomp =       0, rbornstat=      0

Potential function:
     ntf     =       2, ntb     =       2, igb     =       0, nsnb    =      25
     ipol    =       0, gbsa    =       0, iesp    =       0
     dielc   =   1.00000, cut     =  10.00000, intdiel =   1.00000

Frozen or restrained atoms:
     ibelly  =       0, ntr     =       0

Molecular dynamics:
     nstlim  =      9000, nscm    =      1000, nrespa  =         1
     t       =   0.00000, dt      =   0.00100, vlimit  =  -1.00000

Langevin dynamics temperature regulation:
     ig      =  236729
     temp0   =   0.00000, tempi   =   0.00000, gamma_ln=   2.00000

Pressure regulation:
     ntp     =       1
     pres0   =   1.01325, comp    =  44.60000, taup    =   1.00000

SHAKE:
     ntc     =       2, jfastw  =       0
     tol     =   0.00001

Extra-points options:
     frameon =       1, chngmask=       1

Ewald parameters:
     verbose =       0, ew_type =       0, nbflag  =       1, use_pme =       1
     vdwmeth =       1, eedmeth =       1, netfrc  =       1
     Box X =  103.214   Box Y =   96.210   Box Z =   77.940
     Alpha =   90.000   Beta  =   90.000   Gamma =   90.000
     NFFT1 =   48       NFFT2 =   48       NFFT3 =   48
     Cutoff=   10.000   Tol   =0.100E-04
     Ewald Coefficient =  0.27511
     Interpolation order =    4

--------------------------------------------------------------------------------
   3.  ATOMIC COORDINATES AND VELOCITIES
--------------------------------------------------------------------------------

default_name
 begin time read from input coords =     0.000 ps

 Number of triangulated 3-point waters found:    18861

     Sum of charges from parm topology file =  -5.99589467
     Assuming uniform neutralizing plasma

--------------------------------------------------------------------------------
   4.  RESULTS
 NSTEP =        0   TIME(PS) =       0.000  TEMP(K) =     0.00  PRESS = -1451.1
 Etot   =   -412067.9929  EKtot   =         0.0000  EPtot      =   -412067.9929
 BOND   =       246.8729  ANGLE   =       919.0468  DIHED      =      1963.8516
 UB     =         0.0000  IMP     =         0.0000  CMAP       =       343.1137
 1-4 NB =      1476.5599  1-4 EEL =     17687.6675  VDWAALS    =     89061.2276
 EELEC  =   -523766.3330  EHBOND  =         0.0000  RESTRAINT  =         0.0000
 EKCMT  =         0.0000  VIRIAL  =     24248.9267  VOLUME     =    773957.4850
                                                    Density    =         0.8394
 ------------------------------------------------------------------------------

      A V E R A G E S   O V E R     500 S T E P S

 NSTEP =      500   TIME(PS) =       0.500  TEMP(K) =    25.43  PRESS =   832.2
 Etot   =   -277974.8249  EKtot   =      3314.2889  EPtot      =   -281289.1138
 BOND   =       242.2297  ANGLE   =       911.1646  DIHED      =      1965.7974
 UB     =         0.0000  IMP     =         0.0000  CMAP       =       340.2946
 1-4 NB =      1489.3729  1-4 EEL =     17709.2795  VDWAALS    =     51440.9673
 EELEC  =   -355388.2197  EHBOND  =         0.0000  RESTRAINT  =         0.0000
 EKCMT  =      2490.4456  VIRIAL  =    -11543.1692  VOLUME     =    790540.1306
                                                    Density    =         0.8218
 ------------------------------------------------------------------------------

      R M S  F L U C T U A T I O N S

 NSTEP =      500   TIME(PS) =       0.500  TEMP(K) =    51.41  PRESS =  2979.8
 Etot   =      5051.1193  EKtot   =      6699.1969  EPtot      =      6125.7623
 BOND   =         2.4225  ANGLE   =         3.3465  DIHED      =         7.7299
 UB     =         0.0000  IMP     =         0.0000  CMAP       =         1.4078
 1-4 NB =         5.4755  1-4 EEL =        10.7596  VDWAALS    =      9613.9853
 EELEC  =     10930.0055  EHBOND  =         0.0000  RESTRAINT  =         0.0000
 EKCMT  =       756.2162  VIRIAL  =     50475.4390  VOLUME     =      3504.9223
                                                    Density    =         0.0037
 ------------------------------------------------------------------------------

      A V E R A G E S   O V E R     500 S T E P S

 NSTEP =     1000   TIME(PS) =       1.000  TEMP(K) =    10.92  PRESS =  -533.7
 Etot   =   -282550.4275  EKtot   =      1423.2431  EPtot      =   -283973.6706
 BOND   =       241.2622  ANGLE   =       917.4294  DIHED      =      1988.6152
 UB     =         0.0000  IMP     =         0.0000  CMAP       =       336.3588
 1-4 NB =      1498.2439  1-4 EEL =     17720.1670  VDWAALS    =     48512.2884
 EELEC  =   -355188.0356  EHBOND  =         0.0000  RESTRAINT  =         0.0000
 EKCMT  =      1222.5341  VIRIAL  =     10253.4757  VOLUME     =    783434.9778
                                                    Density    =         0.8293
 ------------------------------------------------------------------------------

      R M S  F L U C T U A T I O N S

 NSTEP =     1000   TIME(PS) =       1.000  TEMP(K) =     2.35  PRESS =    68.4
 Etot   =       840.5411  EKtot   =       306.2199  EPtot      =       534.4322
 BOND   =         1.1559  ANGLE   =         1.8571  DIHED      =         3.6154
 UB     =         0.0000  IMP     =         0.0000  CMAP       =         1.1269
 1-4 NB =         3.4699  1-4 EEL =         3.6748  VDWAALS    =       398.4558
 EELEC  =       937.9931  EHBOND  =         0.0000  RESTRAINT  =         0.0000
 EKCMT  =       262.6844  VIRIAL  =      1437.4376  VOLUME     =      2706.0173
                                                    Density    =         0.0029
 ------------------------------------------------------------------------------

      A V E R A G E S   O V E R     500 S T E P S

 NSTEP =     1500   TIME(PS) =       1.500  TEMP(K) =     5.32  PRESS =  -373.0
 Etot   =   -284627.0858  EKtot   =       693.0896  EPtot      =   -285320.1754
 BOND   =       240.4592  ANGLE   =       916.1035  DIHED      =      1992.2278
 UB     =         0.0000  IMP     =         0.0000  CMAP       =       333.3626
 1-4 NB =      1499.5821  1-4 EEL =     17739.0413  VDWAALS    =     49392.7117
 EELEC  =   -357433.6637  EHBOND  =         0.0000  RESTRAINT  =         0.0000
 EKCMT  =       595.0625  VIRIAL  =      6843.4560  VOLUME     =    775728.4040
                                                    Density    =         0.8375
 ------------------------------------------------------------------------------

      R M S  F L U C T U A T I O N S

 NSTEP =     1500   TIME(PS) =       1.500  TEMP(K) =     1.12  PRESS =    28.2
 Etot   =       408.2488  EKtot   =       145.6138  EPtot      =       262.7170
 BOND   =         1.1998  ANGLE   =         4.8940  DIHED      =         3.1075
 UB     =         0.0000  IMP     =         0.0000  CMAP       =         1.8664
 1-4 NB =         1.5107  1-4 EEL =         5.5270  VDWAALS    =       153.7738
 EELEC  =       416.2177  EHBOND  =         0.0000  RESTRAINT  =         0.0000
 EKCMT  =       123.3887  VIRIAL  =       598.0303  VOLUME     =      1884.8207
                                                    Density    =         0.0020
 ------------------------------------------------------------------------------

      A V E R A G E S   O V E R     500 S T E P S

 NSTEP =     2000   TIME(PS) =       2.000  TEMP(K) =     2.83  PRESS =  -323.1
 Etot   =   -285669.2709  EKtot   =       369.0679  EPtot      =   -286038.3388
 BOND   =       240.7165  ANGLE   =       915.0148  DIHED      =      1993.1321
 UB     =         0.0000  IMP     =         0.0000  CMAP       =       335.1262
 1-4 NB =      1497.4910  1-4 EEL =     17731.9469  VDWAALS    =     49679.1619
 EELEC  =   -358430.9282  EHBOND  =         0.0000  RESTRAINT  =         0.0000
 EKCMT  =       319.1572  VIRIAL  =      5689.2682  VOLUME     =    769823.4179
                                                    Density    =         0.8439
 ------------------------------------------------------------------------------

      R M S  F L U C T U A T I O N S

 NSTEP =     2000   TIME(PS) =       2.000  TEMP(K) =     0.47  PRESS =    10.7
 Etot   =       219.2454  EKtot   =        61.3460  EPtot      =       157.9232
 BOND   =         1.0293  ANGLE   =         2.5783  DIHED      =         1.7979
 UB     =         0.0000  IMP     =         0.0000  CMAP       =         0.9138
 1-4 NB =         1.5654  1-4 EEL =         4.7683  VDWAALS    =        26.1798
 EELEC  =       173.8508  EHBOND  =         0.0000  RESTRAINT  =         0.0000
 EKCMT  =        52.8460  VIRIAL  =       205.5461  VOLUME     =      1601.1000
                                                    Density    =         0.0018
 ------------------------------------------------------------------------------

      A V E R A G E S   O V E R     500 S T E P S

 NSTEP =     2500   TIME(PS) =       2.500  TEMP(K) =     1.66  PRESS =  -314.1
 Etot   =   -286258.4282  EKtot   =       216.9722  EPtot      =   -286475.4004
 BOND   =       238.9433  ANGLE   =       912.8365  DIHED      =      1993.2772
 UB     =         0.0000  IMP     =         0.0000  CMAP       =       334.6676
 1-4 NB =      1498.1877  1-4 EEL =     17732.1596  VDWAALS    =     49781.0553
 EELEC  =   -358966.5277  EHBOND  =         0.0000  RESTRAINT  =         0.0000
 EKCMT  =       190.1942  VIRIAL  =      5374.7170  VOLUME     =    764372.3744
                                                    Density    =         0.8499
 ------------------------------------------------------------------------------

      R M S  F L U C T U A T I O N S

 NSTEP =     2500   TIME(PS) =       2.500  TEMP(K) =     0.24  PRESS =     8.5
 Etot   =       131.6758  EKtot   =        30.7471  EPtot      =       101.0042
 BOND   =         0.8306  ANGLE   =         1.7591  DIHED      =         1.1043
 UB     =         0.0000  IMP     =         0.0000  CMAP       =         0.5807
 1-4 NB =         1.4639  1-4 EEL =         7.9066  VDWAALS    =        33.8194
 EELEC  =       131.3736  EHBOND  =         0.0000  RESTRAINT  =         0.0000
 EKCMT  =        26.3031  VIRIAL  =       143.2426  VOLUME     =      1545.9839
                                                    Density    =         0.0017
 ------------------------------------------------------------------------------

      A V E R A G E S   O V E R     500 S T E P S

 NSTEP =     7500   TIME(PS) =       7.500  TEMP(K) =     0.84  PRESS =  -496.4
 Etot   =   -288511.8698  EKtot   =       109.0724  EPtot      =   -288620.9422
 BOND   =       236.5497  ANGLE   =       912.2408  DIHED      =      2002.5415
 UB     =         0.0000  IMP     =         0.0000  CMAP       =       338.4256
 1-4 NB =      1504.6004  1-4 EEL =     17745.5654  VDWAALS    =     49380.9069
 EELEC  =   -360741.7724  EHBOND  =         0.0000  RESTRAINT  =         0.0000
 EKCMT  =       106.9973  VIRIAL  =      7649.3291  VOLUME     =    703698.6126
                                                    Density    =         0.9232
 ------------------------------------------------------------------------------

      R M S  F L U C T U A T I O N S

 NSTEP =     7500   TIME(PS) =       7.500  TEMP(K) =     0.05  PRESS =     9.9
 Etot   =        76.9707  EKtot   =         6.6571  EPtot      =        83.5291
 BOND   =         0.1349  ANGLE   =         0.3931  DIHED      =         0.1481
 UB     =         0.0000  IMP     =         0.0000  CMAP       =         0.2168
 1-4 NB =         0.3564  1-4 EEL =         1.0162  VDWAALS    =        21.3602
 EELEC  =        63.0219  EHBOND  =         0.0000  RESTRAINT  =         0.0000
 EKCMT  =         6.2389  VIRIAL  =       133.1890  VOLUME     =      2257.9376
                                                    Density    =         0.0030
 ------------------------------------------------------------------------------

      A V E R A G E S   O V E R     500 S T E P S

 NSTEP =     8000   TIME(PS) =       8.000  TEMP(K) =     1.07  PRESS =  -524.3
 Etot   =   -288812.5847  EKtot   =       139.5382  EPtot      =   -288952.1229
 BOND   =       236.9285  ANGLE   =       909.1112  DIHED      =      2003.6169
 UB     =         0.0000  IMP     =         0.0000  CMAP       =       338.2144
 1-4 NB =      1504.3769  1-4 EEL =     17745.9117  VDWAALS    =     49339.9166
 EELEC  =   -361030.1990  EHBOND  =         0.0000  RESTRAINT  =         0.0000
 EKCMT  =       135.4891  VIRIAL  =      8010.4058  VOLUME     =    695714.9202
                                                    Density    =         0.9338
 ------------------------------------------------------------------------------

      R M S  F L U C T U A T I O N S

 NSTEP =     8000   TIME(PS) =       8.000  TEMP(K) =     0.08  PRESS =     9.3
 Etot   =        96.2434  EKtot   =        10.3760  EPtot      =       106.4575
 BOND   =         0.1637  ANGLE   =         0.9511  DIHED      =         0.4344
 UB     =         0.0000  IMP     =         0.0000  CMAP       =         0.0744
 1-4 NB =         0.1427  1-4 EEL =         0.7427  VDWAALS    =        16.5765
 EELEC  =        94.8679  EHBOND  =         0.0000  RESTRAINT  =         0.0000
 EKCMT  =         9.6656  VIRIAL  =       125.5410  VOLUME     =      2346.8471
                                                    Density    =         0.0032
 ------------------------------------------------------------------------------

      A V E R A G E S   O V E R     500 S T E P S

 NSTEP =     8500   TIME(PS) =       8.500  TEMP(K) =     1.29  PRESS =  -556.0
 Etot   =   -289182.5234  EKtot   =       168.5923  EPtot      =   -289351.1158
 BOND   =       237.0953  ANGLE   =       910.3357  DIHED      =      2002.6481
 UB     =         0.0000  IMP     =         0.0000  CMAP       =       338.0753
 1-4 NB =      1503.8964  1-4 EEL =     17744.8390  VDWAALS    =     49270.6304
 EELEC  =   -361358.6360  EHBOND  =         0.0000  RESTRAINT  =         0.0000
 EKCMT  =       164.3868  VIRIAL  =      8415.2255  VOLUME     =    687382.7575
                                                    Density    =         0.9452
 ------------------------------------------------------------------------------

      R M S  F L U C T U A T I O N S

 NSTEP =     8500   TIME(PS) =       8.500  TEMP(K) =     0.05  PRESS =    12.4
 Etot   =       116.6493  EKtot   =         6.4852  EPtot      =       122.3429
 BOND   =         0.1955  ANGLE   =         0.7054  DIHED      =         0.3867
 UB     =         0.0000  IMP     =         0.0000  CMAP       =         0.3103
 1-4 NB =         0.2589  1-4 EEL =         0.8583  VDWAALS    =        27.7718
 EELEC  =        99.1526  EHBOND  =         0.0000  RESTRAINT  =         0.0000
 EKCMT  =         6.4652  VIRIAL  =       162.7107  VOLUME     =      2466.0453
                                                    Density    =         0.0034
 ------------------------------------------------------------------------------

      A V E R A G E S   O V E R     500 S T E P S

 NSTEP =     9000   TIME(PS) =       9.000  TEMP(K) =     1.39  PRESS =  -553.3
 Etot   =   -289599.3716  EKtot   =       180.9122  EPtot      =   -289780.2838
 BOND   =       237.9228  ANGLE   =       911.2736  DIHED      =      2002.5420
 UB     =         0.0000  IMP     =         0.0000  CMAP       =       337.5047
 1-4 NB =      1502.7865  1-4 EEL =     17741.2867  VDWAALS    =     49289.5825
 EELEC  =   -361803.1825  EHBOND  =         0.0000  RESTRAINT  =         0.0000
 EKCMT  =       176.8461  VIRIAL  =      8287.2106  VOLUME     =    678838.1235
                                                    Density    =         0.9571
 ------------------------------------------------------------------------------

      R M S  F L U C T U A T I O N S

 NSTEP =     9000   TIME(PS) =       9.000  TEMP(K) =     0.03  PRESS =     8.9
 Etot   =       123.0375  EKtot   =         3.5427  EPtot      =       121.7372
 BOND   =         0.2147  ANGLE   =         0.6189  DIHED      =         0.8802
 UB     =         0.0000  IMP     =         0.0000  CMAP       =         0.1151
 1-4 NB =         0.2801  1-4 EEL =         1.0996  VDWAALS    =        25.0647
 EELEC  =       141.1065  EHBOND  =         0.0000  RESTRAINT  =         0.0000
 EKCMT  =         3.3076  VIRIAL  =       154.2343  VOLUME     =      2414.3549
                                                    Density    =         0.0034
 ------------------------------------------------------------------------------

      A V E R A G E S   O V E R    9000 S T E P S

 NSTEP =     9000   TIME(PS) =       9.000  TEMP(K) =     3.18  PRESS =  -341.0
 Etot   =   -286688.6341  EKtot   =       413.8932  EPtot      =   -287102.5273
 BOND   =       238.0546  ANGLE   =       912.1550  DIHED      =      1997.3140
 UB     =         0.0000  IMP     =         0.0000  CMAP       =       337.7387
 1-4 NB =      1501.6311  1-4 EEL =     17740.6048  VDWAALS    =     49629.6836
 EELEC  =   -359459.7091  EHBOND  =         0.0000  RESTRAINT  =         0.0000
 EKCMT  =       343.5660  VIRIAL  =      5667.8978  VOLUME     =    737456.2571
                                                    Density    =         0.8827
 ------------------------------------------------------------------------------

      R M S  F L U C T U A T I O N S

 NSTEP =     9000   TIME(PS) =       9.000  TEMP(K) =    13.51  PRESS =   762.8
 Etot   =      2938.4224  EKtot   =      1760.0951  EPtot      =      2453.9200
 BOND   =         1.9690  ANGLE   =         2.7120  DIHED      =         9.1955
 UB     =         0.0000  IMP     =         0.0000  CMAP       =         1.9569
 1-4 NB =         4.2170  1-4 EEL =        11.2394  VDWAALS    =      2330.4944
 EELEC  =      3145.9832  EHBOND  =         0.0000  RESTRAINT  =         0.0000
 EKCMT  =       618.3528  VIRIAL  =     12685.4301  VOLUME     =     32647.7938
                                                    Density    =         0.0394
 ------------------------------------------------------------------------------
